/*--------------------------------*- C++ -*----------------------------------*\
| =========                 |                                                 |
| \\      /  F ield         | OpenFOAM: The Open Source CFD Toolbox           |
|  \\    /   O peration     | Version:  v1706+                                |
|   \\  /    A nd           | Web:      www.OpenFOAM.org                      |
|    \\/     M anipulation  |                                                 |
\*---------------------------------------------------------------------------*/
/* Butterfly 0.0.4                https://github.com/ladybug-tools/butterfly *\
\*---------------------------------------------------------------------------*/
FoamFile
{
	version		4.0;
	format		ascii;
	class		dictionary;
	location	"system";
	object		fvSchemes;
}

ddtSchemes
{

    default		steadyState;

}

gradSchemes
{

    default		cellLimited leastSquares 1;

}

divSchemes
{

    default		none;

    div(phi,epsilon)		bounded Gauss upwind default;

    div(phi,T)		bounded Gauss upwind default;

    div(phi,U)		bounded Gauss upwind grad(U);

    div((nuEff*dev2(T(grad(U)))))		Gauss linear;

    div(phi,k)		bounded Gauss upwind grad(k);

}

laplacianSchemes
{

    default		Gauss linear limited corrected 0.333;

}

interpolationSchemes
{

    default		linear;

}

snGradSchemes
{

    default		limited corrected 0.333;

}

fluxRequired
{

    default		no;

}