/*--------------------------------*- C++ -*----------------------------------*\
| =========                 |                                                 |
| \\      /  F ield         | OpenFOAM: The Open Source CFD Toolbox           |
|  \\    /   O peration     | Version:  v1706+                                |
|   \\  /    A nd           | Web:      www.OpenFOAM.org                      |
|    \\/     M anipulation  |                                                 |
\*---------------------------------------------------------------------------*/
/* Butterfly 0.0.4                https://github.com/ladybug-tools/butterfly *\
\*---------------------------------------------------------------------------*/
FoamFile
{
	version		4.0;
	format		ascii;
	class		volScalarField;
	location	"0";
	object		alphat;
}

dimensions		[0 2 -1 0 0 0 0];

internalField		uniform 0;

boundaryField
{

    Symmetry
    {

        type		alphatJayatillekeWallFunction;

        value		uniform 0;

        Prt		0.85;

    }

    Duct_Wall
    {

        type		alphatJayatillekeWallFunction;

        value		uniform 0;

        Prt		0.85;

    }

    Walls
    {

        type		alphatJayatillekeWallFunction;

        value		uniform 0;

        Prt		0.85;

    }

    outlet
    {

        type		zeroGradient;

    }

    boundingbox_empty
    {

        type		empty;

    }

    Hole_Inlet_1200
    {

        type		zeroGradient;

    }

}